[Format]      =  4.0
[Frequency]   =  0
[Precision]   =  1e-008
[MinAngle]    =  30
[DoSmartMesh] =  1
[Depth]       =  1
[LengthUnits] =  millimeters
[ProblemType] =  axisymmetric
[Coordinates] =  cartesian
[ACSolver]    =  0
[PrevType]    =  0
[PrevSoln]    =  ""
[Comment]     =  "Add comments here."
[PointProps]   = 0
[BdryProps]   = 1
  <BeginBdry>
    <BdryName> = "ABC"
    <BdryType> = 2
    <A_0> = 0
    <A_1> = 0
    <A_2> = 0
    <Phi> = 0
    <c0> = 198943.6788648692
    <c0i> = 0
    <c1> = 0
    <c1i> = 0
    <Mu_ssd> = 0
    <Sigma_ssd> = 0
    <innerangle> = 0
    <outerangle> = 0
  <EndBdry>
[BlockProps]  = 5
  <BeginBlock>
    <BlockName> = "Terfenol-D"
    <Mu_x> = 1
    <Mu_y> = 1
    <H_c> = 0
    <H_cAngle> = 0
    <J_re> = 0
    <J_im> = 0
    <Sigma> = 0
    <d_lam> = 0
    <Phi_h> = 0
    <Phi_hx> = 0
    <Phi_hy> = 0
    <LamType> = 0
    <LamFill> = 1
    <NStrands> = 0
    <WireD> = 0
    <BHPoints> = 145
      0	0
      0.025992000000000001	464.40934900000002
      0.052995	1161.022577
      0.083035999999999999	1857.635806
      0.11611399999999999	2554.2490339999999
      0.15121699999999999	3250.8638540000002
      0.18620900000000001	3947.4770819999999
      0.22019	4876.2957800000004
      0.25102400000000002	5805.1144789999998
      0.27882000000000001	6966.1386480000001
      0.30368899999999999	8127.1612249999998
      0.32653399999999999	9055.9799239999993
      0.34836600000000001	9984.7970310000001
      0.36918600000000001	10913.61573
      0.39000600000000002	11842.432839999999
      0.41082600000000002	12771.251539999999
      0.43367099999999997	13700.070229999999
      0.456625	14628.888929999999
      0.48160500000000001	15325.50216
      0.50669399999999998	16022.116980000001
      0.53268499999999996	16486.526330000001
      0.55867699999999998	17183.13956
      0.58557099999999995	17879.752789999999
      0.61257399999999995	18808.571479999999
      0.63845600000000002	19505.184710000001
      0.66321600000000003	20434.001820000001
      0.68403599999999998	21595.024399999998
      0.70181899999999997	22523.843099999998
      0.71645499999999995	23452.661789999998
      0.72805399999999998	24613.684369999999
      0.737738	25774.70695
      0.74641000000000002	26703.52565
      0.75406899999999999	27632.344349999999
      0.76071699999999998	28561.16145
      0.76736400000000005	29489.980149999999
      0.772096	30418.798849999999
      0.77773099999999995	31115.412079999998
      0.78336600000000001	32044.230780000002
      0.78798800000000002	32973.049480000001
      0.79272100000000001	33901.868170000002
      0.79734300000000002	34598.482989999997
      0.80095300000000003	35527.30169
      0.80467299999999997	36456.118799999997
      0.80839300000000003	37152.732029999999
      0.81200300000000003	37849.345260000002
      0.81572299999999998	38778.162360000002
      0.81944300000000003	39474.775589999997
      0.82305300000000003	40171.39041
      0.82666300000000004	41100.209110000003
      0.82937099999999997	42029.02781
      0.83298099999999997	42725.642630000002
      0.83670100000000003	43654.461329999998
      0.83940899999999996	44351.074549999998
      0.84312900000000002	45047.68937
      0.84673900000000002	45744.302600000003
      0.85045899999999996	46673.119709999999
      0.85305699999999995	47369.732940000002
      0.85677700000000001	48298.551639999998
      0.85847200000000001	48995.164859999997
      0.86117900000000003	49691.77809
      0.862765	50388.392910000002
      0.86637500000000001	51317.211609999998
      0.868973	52246.030310000002
      0.87157099999999998	53174.849009999998
      0.874278	54103.667710000002
      0.87799799999999995	54800.280930000001
      0.88081600000000004	55496.894160000003
      0.88352299999999995	55961.301919999998
      0.88623099999999999	56657.915150000001
      0.88781600000000005	57354.528380000003
      0.88940200000000003	58283.34708
      0.89098699999999997	59212.16577
      0.89358499999999996	60140.984470000003
      0.89629300000000001	61069.803169999999
      0.89900000000000002	61766.417990000002
      0.90170799999999995	62463.031219999997
      0.904416	63159.64445
      0.906111	63856.257680000002
      0.90769599999999995	64552.870900000002
      0.91029400000000005	65481.688009999998
      0.91300199999999998	66410.506710000001
      0.91458700000000004	67107.121530000004
      0.91628200000000004	68035.940229999993
      0.91898999999999997	68732.553459999996
      0.92169800000000002	69429.168279999998
      0.92339300000000002	70125.781499999997
      0.92610000000000003	70822.39473
      0.92880799999999997	71519.009550000002
      0.93050299999999997	72215.624370000005
      0.93118599999999996	72912.237599999993
      0.93288199999999999	73608.850829999996
      0.93356499999999998	74305.464059999998
      0.93525999999999998	75002.077279999998
      0.93695499999999998	75698.69051
      0.93977200000000005	76395.303740000003
      0.94146799999999997	76859.713090000005
      0.94417499999999999	77556.327910000007
      0.94576099999999996	78252.941139999995
      0.94734600000000002	79181.759839999999
      0.948932	80110.578529999999
      0.95051699999999995	81039.397230000002
      0.95210300000000003	81968.215930000006
      0.95379800000000003	82897.034629999995
      0.95549300000000004	83593.647859999997
      0.95718800000000004	84290.26109
      0.95899400000000001	84986.874320000003
      0.96079899999999996	85451.282070000001
      0.96249399999999996	85915.691420000003
      0.96429900000000002	86612.304650000005
      0.96599400000000002	87076.714000000007
      0.96758	87773.328819999995
      0.969275	88702.147519999999
      0.97097	89398.760750000001
      0.972665	90095.375570000004
      0.97436100000000003	90791.990390000006
      0.97616599999999998	91488.603610000006
      0.97684899999999997	91953.012959999993
      0.97854399999999997	92649.626189999995
      0.98023899999999997	93346.239419999998
      0.981935	94042.852650000001
      0.98363	94739.465880000003
      0.98532500000000001	95436.079100000003
      0.98702000000000001	96132.693920000005
      0.98871600000000004	96829.307149999993
      0.98939900000000003	97525.920379999996
      0.99109400000000003	98222.535199999998
      0.99278900000000003	98919.150020000001
      0.99358199999999997	99615.763250000004
      0.99426499999999995	100080.17260000001
      0.99607000000000001	100776.7874
      0.996753	101241.19680000001
      0.998448	101937.81
      1.000143	102634.4232
      1.0019480000000001	103331.0365
      1.002631	103795.4442
      1.0044360000000001	104492.05740000001
      1.006351	104956.46679999999
      1.007144	105188.67230000001
      1.007827	105653.0816
      1.0096320000000001	106349.6964
      1.0113270000000001	106814.1058
      1.0120100000000001	107510.719
      1.0137050000000001	108207.3322
      1.0155099999999999	108903.9471
      1.0172060000000001	109368.3564
  <EndBlock>
  <BeginBlock>
    <BlockName> = "Air"
    <Mu_x> = 1
    <Mu_y> = 1
    <H_c> = 0
    <H_cAngle> = 0
    <J_re> = 0
    <J_im> = 0
    <Sigma> = 0
    <d_lam> = 0
    <Phi_h> = 0
    <Phi_hx> = 0
    <Phi_hy> = 0
    <LamType> = 0
    <LamFill> = 1
    <NStrands> = 0
    <WireD> = 0
    <BHPoints> = 0
  <EndBlock>
  <BeginBlock>
    <BlockName> = "12 AWG"
    <Mu_x> = 1
    <Mu_y> = 1
    <H_c> = 0
    <H_cAngle> = 0
    <J_re> = 0
    <J_im> = 0
    <Sigma> = 58
    <d_lam> = 0
    <Phi_h> = 0
    <Phi_hx> = 0
    <Phi_hy> = 0
    <LamType> = 3
    <LamFill> = 1
    <NStrands> = 1
    <WireD> = 2.0530176819291301
    <BHPoints> = 0
  <EndBlock>
  <BeginBlock>
    <BlockName> = "1020 Steel"
    <Mu_x> = 760
    <Mu_y> = 760
    <H_c> = 0
    <H_cAngle> = 0
    <J_re> = 0
    <J_im> = 0
    <Sigma> = 5.7999999999999998
    <d_lam> = 0
    <Phi_h> = 20
    <Phi_hx> = 0
    <Phi_hy> = 0
    <LamType> = 0
    <LamFill> = 1
    <NStrands> = 0
    <WireD> = 0
    <BHPoints> = 38
      0	0
      0.16625200000000001	79.577472
      0.20872499999999999	100.182101
      0.26163500000000001	126.121793
      0.32714599999999999	158.77793
      0.407495	199.88957099999999
      0.50460400000000005	251.646061
      0.61936599999999997	316.80362000000002
      0.750502	398.83212800000001
      0.89319499999999996	502.09990099999999
      1.0382579999999999	632.10632499999997
      1.173276	795.77471500000001
      1.2867310000000001	1001.821011
      1.3735329999999999	1261.2179289999999
      1.4376580000000001	1587.779301
      1.4891890000000001	1998.89571
      1.5383439999999999	2516.4606050000002
      1.591321	3168.036204
      1.6497230000000001	3988.3212819999999
      1.711927	5020.9990129999996
      1.7747120000000001	6321.0632500000002
      1.8349759999999999	7957.747155
      1.8914420000000001	10018.210114
      1.945262	12612.179292999999
      1.998705	15877.793009999999
      2.0528520000000001	19988.957103000001
      2.1061839999999998	25164.606051999999
      2.1551490000000002	31680.362036999999
      2.1963750000000002	39883.212823000002
      2.2290079999999999	50209.990126999997
      2.2554500000000002	63210.632496999999
      2.2800530000000001	79577.471546000001
      2.3071359999999999	100182.101136
      2.3399749999999999	126121.79292599999
      2.3810440000000002	158777.930096
      2.4327079999999999	199889.57102999999
      2.4977480000000001	251646.06052200001
      2.5796269999999999	316803.62037000002
  <EndBlock>
  <BeginBlock>
    <BlockName> = "430 Stainless Steel"
    <Mu_x> = 409
    <Mu_y> = 409
    <H_c> = 0
    <H_cAngle> = 0
    <J_re> = 0
    <J_im> = 0
    <Sigma> = 0
    <d_lam> = 0
    <Phi_h> = 0
    <Phi_hx> = 0
    <Phi_hy> = 0
    <LamType> = 0
    <LamFill> = 1
    <NStrands> = 0
    <WireD> = 0
    <BHPoints> = 10
      0	0
      0.20039999999999999	318.31
      0.6008	636.62
      1.1020000000000001	1591.55
      1.3859999999999999	4774.6499999999996
      1.4650000000000001	7957.75
      1.667548	32902.232515999996
      1.789509	92585.397305000006
      1.878209	160685.354903
      2.0800000000000001	318310
  <EndBlock>
[CircuitProps]  = 1
  <BeginCircuit>
    <CircuitName> = "Coil"
    <TotalAmps_re> = 10
    <TotalAmps_im> = 0
    <CircuitType> = 1
  <EndCircuit>
[NumPoints] = 26
10	50	0	0
10	-50	0	0
30	50	0	0
30	-50	0	0
30	51	0	0
40	51	0	0
40	50	0	0
31	50	0	0
31	-50	0	0
40	-50	0	0
40	-51	0	0
30	-51	0	0
10	150	0	0
10	-150	0	0
30	55	0	0
41	55	0	0
41	58	0	0
30	58	0	0
30	63	0	0
10	63	0	0
10	-53	0	0
30	-53	0	0
10	-60	0	0
50	-60	0	0
50	63	0	0
28	46.100000000000001	0	0
[NumSegments] = 30
0	2	-1	0	0	0
2	3	-1	0	0	0
3	1	-1	0	0	0
1	0	-1	0	0	0
4	5	-1	0	0	0
5	6	-1	0	0	0
6	7	-1	0	0	0
7	8	-1	0	0	0
8	9	-1	0	0	0
9	10	-1	0	0	0
10	11	-1	0	0	0
11	3	-1	0	0	0
2	4	-1	0	0	0
6	9	-1	0	0	0
13	22	-1	0	0	0
0	19	-1	0	0	0
19	12	-1	0	0	0
19	18	-1	0	0	0
18	17	-1	0	0	0
17	16	-1	0	0	0
16	15	-1	0	0	0
15	14	-1	0	0	0
14	4	-1	0	0	0
20	1	-1	0	0	0
20	21	-1	0	0	0
21	11	-1	0	0	0
22	20	-1	0	0	0
18	24	-1	0	0	0
24	23	-1	0	0	0
23	22	-1	0	0	0
[NumArcSegments] = 1
13	12	90	2.5	1	0	0	2.5
[NumHoles] = 0
[NumBlockLabels] = 7
35	-12	3	-1	1	0	0	1000	0
25	-3	1	-1	0	0	0	1	0
18	58	1	-1	0	0	0	1	0
33.700000000000003	50.299999999999997	4	-1	0	0	0	1	0
29.699999999999999	-57.200000000000003	5	-1	0	0	0	1	0
17.399999999999999	-51.5	4	-1	0	0	0	1	0
63.700000000000003	5.7999999999999998	2	-1	0	0	0	1	0
